25

He 5.670920 2.821970 9.55
He 8.773960 7.960000 9.23005
He 11.747930 8.005000 9.23305
He 12.641970 0.771060 9.23395
He 16.136040 10.491000 9.208
He 5.565950 8.035000 9.247
He 7.370060 10.473000 9.262
He 9.971000 10.631990 9.26605
He 12.951980 10.536000 9.27295
He 19.141939 10.559990 9.24805
He 4.086910 0.987960 9.46795
He 1.580100 0.897050 9.382
He 2.447020 2.887970 9.23095
He 8.445050 3.025040 9.20305
He 11.656890 2.697940 9.21505
He 14.522060 2.760020 9.21895
He 16.197929 5.637940 9.226
He 4.079000 5.295970 9.238
He 6.991980 5.312020 9.24295
He 10.113920 5.400960 9.244
He 13.127050 5.328060 9.25
He 14.681020 7.777020 9.26695
He 17.259331 7.831154 9.16195
He 7.193030 0.983000 9.42595
He 9.722060 0.783980 9.43195
