   13
 
Au     1.665636     2.884966    12.355578
Au     2.498479     4.327492    14.711087
Au     0.000000     2.884995    14.711087
Au     2.498479     1.442497    14.711087
Au     0.000000     0.000000    14.711087
Au     0.832843     1.442526    10.000069
Au     0.832843     4.327521    10.000068
Au     1.665636     5.769961    12.355577
Au     4.164117     7.212455    12.355579
Au     4.164113     4.327460    12.355581
Au     3.331325     5.770015    10.000070
Au     3.331320     2.885020    10.000072
He     0.000000     0.000000    21.211132
