28
slab.pdb
Au         1.44200        0.83300       20.00000
Au         4.32700        0.83300       20.00000
Au         7.21200        0.83300       20.00000
Au         2.88500        3.33100       20.00000
Au         5.77000        3.33100       20.00000
Au         8.65500        3.33100       20.00000
Au         4.32700        5.83000       20.00000
Au         7.21200        5.83000       20.00000
Au        10.09700        5.83000       20.00000
Au        -0.00000        1.66600       22.35600
Au         2.88500        1.66600       22.35600
Au         5.77000        1.66600       22.35600
Au         1.44200        4.16400       22.35600
Au         4.32700        4.16400       22.35600
Au         7.21200        4.16400       22.35600
Au         2.88500        6.66300       22.35600
Au         5.77000        6.66300       22.35600
Au         8.65500        6.66300       22.35600
Au         0.00000        0.00000       24.71100
Au         2.88500        0.00000       24.71100
Au         5.77000        0.00000       24.71100
Au         1.44200        2.49800       24.71100
Au         4.32700        2.49800       24.71100
Au         7.21200        2.49800       24.71100
Au         2.88500        4.99700       24.71100
Au         5.77000        4.99700       24.71100
Au         8.65500        4.99700       24.71100
He         5.50000        3.50000       28.21100
