25

He 5.670920 2.821970 11.05
He 8.773960 7.960000 10.7301
He 11.747930 8.005000 10.7331
He 12.641970 0.771060 10.734
He 16.136040 10.491000 10.708
He 5.565950 8.035000 10.747
He 7.370060 10.473000 10.762
He 9.971000 10.631990 10.766
He 12.951980 10.536000 10.7729
He 19.141939 10.559990 10.748
He 4.086910 0.987960 10.968
He 1.580100 0.897050 10.882
He 2.447020 2.887970 10.7309
He 8.445050 3.025040 10.703
He 11.656890 2.697940 10.715
He 14.522060 2.760020 10.7189
He 16.197929 5.637940 10.726
He 4.079000 5.295970 10.738
He 6.991980 5.312020 10.743
He 10.113920 5.400960 10.744
He 13.127050 5.328060 10.75
He 14.681020 7.777020 10.7669
He 17.259331 7.831154 10.6619
He 7.193030 0.983000 10.926
He 9.722060 0.783980 10.932
